Git is a distributed version control system. 
Git is free software.
Add leespy.
new line.
other line.
